Circuit: *value={FG2()}

Fatal Error: No analysis request found.
