LTspice 24.0.9 for Windows
Circuit: * C:\users\luis\Mis Documentos\memristor\Draft1.asc
Start Time: Thu Mar  7 22:20:45 2024
solver = Normal
Maximum thread count: 16
tnom = 27
temp = 27
method = modified trap
.OP point found by inspection.
Total elapsed time: 0.027 seconds.

