Circuit: * C:\Users\luico\OneDrive\Escritorio\memristor\mem_a14_20_feb_2024.asc

.OP point found by inspection.

Date: Fri May  3 22:26:12 2024
Total elapsed time: 0.067 seconds.

tnom = 27
temp = 27
method = modified trap
totiter = 2082
traniter = 2082
tranpoints = 1042
accept = 1042
rejected = 0
matrix size = 5
fillins = 0
solver = Normal
Avg thread counts: 3.8/6.7/6.7/3.8
Matrix Compiler1:       9 opcodes  0.2/[0.1]/0.2
Matrix Compiler2: 321 bytes object code size  0.1/0.2/[0.1]

