Circuit: * C:\Users\luico\OneDrive\Escritorio\memristor\mem_a14_20_feb_20242.asc

Direct Newton iteration for .op point succeeded.

Date: Sat May  4 06:29:25 2024
Total elapsed time: 0.346 seconds.

tnom = 27
temp = 27
method = modified trap
totiter = 143217
traniter = 143214
tranpoints = 33731
accept = 25315
rejected = 8416
matrix size = 4
fillins = 0
solver = Normal
Avg thread counts: 1.0/1.2/1.1/1.0
Matrix Compiler1:       6 opcodes  0.2/[0.1]/0.2
Matrix Compiler2: 268 bytes object code size  0.1/0.2/[0.2]

