LTspice 24.0.9 for Windows
Circuit: * C:\users\luis\Mis Documentos\memristor\modelo_memristor_simulacion.asc
Start Time: Fri Mar  8 12:14:00 2024
solver = Normal
Maximum thread count: 16
tnom = 27
temp = 27
method = modified trap
.OP point found by inspection.
Total elapsed time: 0.107 seconds.

